Version 4
SHEET 1 1540 824
WIRE 224 -64 -320 -64
WIRE 352 -64 224 -64
WIRE 512 -64 432 -64
WIRE 576 -64 512 -64
WIRE 800 -64 656 -64
WIRE 1072 -64 864 -64
WIRE 224 48 -112 48
WIRE 352 48 224 48
WIRE 512 48 512 -64
WIRE 512 48 432 48
WIRE 960 80 960 48
WIRE 704 96 704 64
WIRE 864 96 864 -64
WIRE 928 96 864 96
WIRE 512 112 512 48
WIRE 672 112 512 112
WIRE 1072 112 1072 -64
WIRE 1072 112 992 112
WIRE 1136 112 1072 112
WIRE 800 128 800 -64
WIRE 800 128 736 128
WIRE 928 128 800 128
WIRE 672 144 512 144
WIRE 960 192 960 144
WIRE 224 208 64 208
WIRE 352 208 224 208
WIRE 512 208 512 144
WIRE 512 208 432 208
WIRE 704 208 704 160
WIRE 352 304 224 304
WIRE 512 304 512 208
WIRE 512 304 432 304
WIRE 560 304 512 304
WIRE 704 304 640 304
WIRE 1136 304 704 304
WIRE -320 368 -320 -64
WIRE -112 368 -112 48
WIRE 64 368 64 208
WIRE 224 368 224 304
WIRE -528 384 -528 336
WIRE -528 528 -528 464
WIRE -528 528 -704 528
WIRE -320 528 -320 448
WIRE -320 528 -528 528
WIRE -112 528 -112 448
WIRE -112 528 -320 528
WIRE 64 528 64 448
WIRE 64 528 -112 528
WIRE 224 528 224 448
WIRE 224 528 64 528
WIRE 704 528 704 304
WIRE 704 528 224 528
WIRE -704 576 -704 528
WIRE -528 576 -528 528
WIRE -528 688 -528 656
WIRE -704 704 -704 656
FLAG -704 704 0
FLAG 1136 112 V+
FLAG 1136 304 V-
FLAG -528 336 Vs+
FLAG -528 688 Vs-
FLAG 704 64 Vs+
FLAG 704 208 Vs-
FLAG 960 48 Vs+
FLAG 960 192 Vs-
FLAG 224 48 main-
FLAG 224 208 main+
FLAG 224 304 adjust+
FLAG 224 -64 adjust-
SYMBOL voltage -528 368 R0
WINDOW 123 0 0 Left 0
WINDOW 39 0 0 Left 0
SYMATTR InstName Vsp
SYMATTR Value 15
SYMBOL Opamps\\LT1366 704 64 R0
SYMATTR InstName U1
SYMBOL voltage -528 560 R0
WINDOW 123 0 0 Left 0
WINDOW 39 0 0 Left 0
SYMATTR InstName Vsn
SYMATTR Value 15
SYMBOL voltage 224 352 R0
WINDOW 123 0 0 Left 0
WINDOW 39 0 0 Left 0
SYMATTR InstName V1
SYMATTR Value 2.5
SYMBOL res -720 560 R0
SYMATTR InstName Riso
SYMATTR Value 10Meg
SYMBOL res 448 32 R90
WINDOW 0 0 56 VBottom 2
WINDOW 3 32 56 VTop 2
SYMATTR InstName R1
SYMATTR Value 1k
SYMBOL res 448 -80 R90
WINDOW 0 0 56 VBottom 2
WINDOW 3 32 56 VTop 2
SYMATTR InstName R2
SYMATTR Value 33k
SYMBOL res 672 -80 R90
WINDOW 0 0 56 VBottom 2
WINDOW 3 32 56 VTop 2
SYMATTR InstName R3
SYMATTR Value 3.3k
SYMBOL res 448 192 R90
WINDOW 0 0 56 VBottom 2
WINDOW 3 32 56 VTop 2
SYMATTR InstName R4
SYMATTR Value 1k
SYMBOL res 448 288 R90
WINDOW 0 0 56 VBottom 2
WINDOW 3 32 56 VTop 2
SYMATTR InstName R5
SYMATTR Value 33k
SYMBOL res 656 288 R90
WINDOW 0 0 56 VBottom 2
WINDOW 3 32 56 VTop 2
SYMATTR InstName R6
SYMATTR Value 3.3k
SYMBOL voltage 64 352 R0
WINDOW 123 0 0 Left 0
WINDOW 39 0 0 Left 0
SYMATTR InstName V2
SYMATTR Value SINE(2.5 1 10)
SYMBOL voltage -112 352 R0
WINDOW 123 0 0 Left 0
WINDOW 39 0 0 Left 0
SYMATTR InstName V3
SYMATTR Value PULSE(0 5 0 5)
SYMBOL Opamps\\LT1366 960 48 R0
SYMATTR InstName U2
SYMBOL voltage -320 352 R0
WINDOW 123 0 0 Left 0
WINDOW 39 0 0 Left 0
SYMATTR InstName V4
SYMATTR Value 2.5
TEXT -432 696 Left 2 !.tran 5
TEXT 288 -80 Left 2 ;x1/10
TEXT 288 40 Left 2 ;x3.3
